<?xml version="1.0"?>

<!-- generated on 08/19/09 15:48:50 by SUMO duarouter Version 0.11.0
<configuration>

    <input
        net-file="C:\For_MOVE\MOVE_example\ex_Map.net.xml"
        flow-definition="C:\For_MOVE\MOVE_example\ex_FLOW.flow.xml"
    />

    <output
        output-file="C:\For_MOVE\MOVE_example\ex_ROU.rou.xml"
    />

    <processing
        continue-on-unbuild="true"
    />

    <time
        begin="0"
        end="1000"
    />

    <report
        verbose="true"
        suppress-warnings="true"
    />

</configuration>
-->

<routes>
   <vehicle id="0" depart="0">
      <route edges="edgeD-2-0 edgeR-2-0 edgeD-1-1 edgeR-1-1 edgeD-0-2"/>
   </vehicle>
   <vehicle id="1" depart="10">
      <route edges="edgeD-2-0 edgeR-2-0 edgeD-1-1 edgeR-1-1 edgeD-0-2"/>
   </vehicle>
   <vehicle id="2" depart="20">
      <route edges="edgeD-2-0 edgeR-2-0 edgeD-1-1 edgeR-1-1 edgeD-0-2"/>
   </vehicle>
   <vehicle id="3" depart="30">
      <route edges="edgeD-2-0 edgeR-2-0 edgeD-1-1 edgeR-1-1 edgeD-0-2"/>
   </vehicle>
   <vehicle id="4" depart="40">
      <route edges="edgeD-2-0 edgeR-2-0 edgeD-1-1 edgeR-1-1 edgeD-0-2"/>
   </vehicle>
   <vehicle id="5" depart="50">
      <route edges="edgeD-2-0 edgeR-2-0 edgeD-1-1 edgeR-1-1 edgeD-0-2"/>
   </vehicle>
   <vehicle id="6" depart="60">
      <route edges="edgeD-2-0 edgeR-2-0 edgeD-1-1 edgeR-1-1 edgeD-0-2"/>
   </vehicle>
   <vehicle id="7" depart="70">
      <route edges="edgeD-2-0 edgeR-2-0 edgeD-1-1 edgeR-1-1 edgeD-0-2"/>
   </vehicle>
   <vehicle id="8" depart="80">
      <route edges="edgeD-2-0 edgeR-2-0 edgeD-1-1 edgeR-1-1 edgeD-0-2"/>
   </vehicle>
   <vehicle id="9" depart="90">
      <route edges="edgeD-2-0 edgeR-2-0 edgeD-1-1 edgeR-1-1 edgeD-0-2"/>
   </vehicle>
   <vehicle id="10" depart="100">
      <route edges="edgeD-2-0 edgeR-2-0 edgeD-1-1 edgeR-1-1 edgeD-0-2"/>
   </vehicle>
   <vehicle id="11" depart="110">
      <route edges="edgeD-2-0 edgeR-2-0 edgeD-1-1 edgeR-1-1 edgeD-0-2"/>
   </vehicle>
   <vehicle id="12" depart="120">
      <route edges="edgeD-2-0 edgeR-2-0 edgeD-1-1 edgeR-1-1 edgeD-0-2"/>
   </vehicle>
   <vehicle id="13" depart="130">
      <route edges="edgeD-2-0 edgeR-2-0 edgeD-1-1 edgeR-1-1 edgeD-0-2"/>
   </vehicle>
   <vehicle id="14" depart="140">
      <route edges="edgeD-2-0 edgeR-2-0 edgeD-1-1 edgeR-1-1 edgeD-0-2"/>
   </vehicle>
   <vehicle id="15" depart="150">
      <route edges="edgeD-2-0 edgeR-2-0 edgeD-1-1 edgeR-1-1 edgeD-0-2"/>
   </vehicle>
   <vehicle id="16" depart="160">
      <route edges="edgeD-2-0 edgeR-2-0 edgeD-1-1 edgeR-1-1 edgeD-0-2"/>
   </vehicle>
   <vehicle id="17" depart="170">
      <route edges="edgeD-2-0 edgeR-2-0 edgeD-1-1 edgeR-1-1 edgeD-0-2"/>
   </vehicle>
   <vehicle id="18" depart="180">
      <route edges="edgeD-2-0 edgeR-2-0 edgeD-1-1 edgeR-1-1 edgeD-0-2"/>
   </vehicle>
   <vehicle id="19" depart="190">
      <route edges="edgeD-2-0 edgeR-2-0 edgeD-1-1 edgeR-1-1 edgeD-0-2"/>
   </vehicle>
   <vehicle id="20" depart="200">
      <route edges="edgeD-2-0 edgeR-2-0 edgeD-1-1 edgeR-1-1 edgeD-0-2"/>
   </vehicle>
   <vehicle id="21" depart="210">
      <route edges="edgeD-2-0 edgeR-2-0 edgeD-1-1 edgeR-1-1 edgeD-0-2"/>
   </vehicle>
   <vehicle id="22" depart="220">
      <route edges="edgeD-2-0 edgeR-2-0 edgeD-1-1 edgeR-1-1 edgeD-0-2"/>
   </vehicle>
   <vehicle id="23" depart="230">
      <route edges="edgeD-2-0 edgeR-2-0 edgeD-1-1 edgeR-1-1 edgeD-0-2"/>
   </vehicle>
   <vehicle id="24" depart="240">
      <route edges="edgeD-2-0 edgeR-2-0 edgeD-1-1 edgeR-1-1 edgeD-0-2"/>
   </vehicle>
   <vehicle id="25" depart="250">
      <route edges="edgeD-2-0 edgeR-2-0 edgeD-1-1 edgeR-1-1 edgeD-0-2"/>
   </vehicle>
   <vehicle id="26" depart="260">
      <route edges="edgeD-2-0 edgeR-2-0 edgeD-1-1 edgeR-1-1 edgeD-0-2"/>
   </vehicle>
   <vehicle id="27" depart="270">
      <route edges="edgeD-2-0 edgeR-2-0 edgeD-1-1 edgeR-1-1 edgeD-0-2"/>
   </vehicle>
   <vehicle id="28" depart="280">
      <route edges="edgeD-2-0 edgeR-2-0 edgeD-1-1 edgeR-1-1 edgeD-0-2"/>
   </vehicle>
   <vehicle id="29" depart="290">
      <route edges="edgeD-2-0 edgeR-2-0 edgeD-1-1 edgeR-1-1 edgeD-0-2"/>
   </vehicle>
   <vehicle id="30" depart="300">
      <route edges="edgeD-2-0 edgeR-2-0 edgeD-1-1 edgeR-1-1 edgeD-0-2"/>
   </vehicle>
   <vehicle id="31" depart="310">
      <route edges="edgeD-2-0 edgeR-2-0 edgeD-1-1 edgeR-1-1 edgeD-0-2"/>
   </vehicle>
   <vehicle id="32" depart="320">
      <route edges="edgeD-2-0 edgeR-2-0 edgeD-1-1 edgeR-1-1 edgeD-0-2"/>
   </vehicle>
   <vehicle id="33" depart="330">
      <route edges="edgeD-2-0 edgeR-2-0 edgeD-1-1 edgeR-1-1 edgeD-0-2"/>
   </vehicle>
   <vehicle id="34" depart="340">
      <route edges="edgeD-2-0 edgeR-2-0 edgeD-1-1 edgeR-1-1 edgeD-0-2"/>
   </vehicle>
   <vehicle id="35" depart="350">
      <route edges="edgeD-2-0 edgeR-2-0 edgeD-1-1 edgeR-1-1 edgeD-0-2"/>
   </vehicle>
   <vehicle id="36" depart="360">
      <route edges="edgeD-2-0 edgeR-2-0 edgeD-1-1 edgeR-1-1 edgeD-0-2"/>
   </vehicle>
   <vehicle id="37" depart="370">
      <route edges="edgeD-2-0 edgeR-2-0 edgeD-1-1 edgeR-1-1 edgeD-0-2"/>
   </vehicle>
   <vehicle id="38" depart="380">
      <route edges="edgeD-2-0 edgeR-2-0 edgeD-1-1 edgeR-1-1 edgeD-0-2"/>
   </vehicle>
   <vehicle id="39" depart="390">
      <route edges="edgeD-2-0 edgeR-2-0 edgeD-1-1 edgeR-1-1 edgeD-0-2"/>
   </vehicle>
   <vehicle id="40" depart="400">
      <route edges="edgeD-2-0 edgeR-2-0 edgeD-1-1 edgeR-1-1 edgeD-0-2"/>
   </vehicle>
   <vehicle id="41" depart="410">
      <route edges="edgeD-2-0 edgeR-2-0 edgeD-1-1 edgeR-1-1 edgeD-0-2"/>
   </vehicle>
   <vehicle id="42" depart="420">
      <route edges="edgeD-2-0 edgeR-2-0 edgeD-1-1 edgeR-1-1 edgeD-0-2"/>
   </vehicle>
   <vehicle id="43" depart="430">
      <route edges="edgeD-2-0 edgeR-2-0 edgeD-1-1 edgeR-1-1 edgeD-0-2"/>
   </vehicle>
   <vehicle id="44" depart="440">
      <route edges="edgeD-2-0 edgeR-2-0 edgeD-1-1 edgeR-1-1 edgeD-0-2"/>
   </vehicle>
   <vehicle id="45" depart="450">
      <route edges="edgeD-2-0 edgeR-2-0 edgeD-1-1 edgeR-1-1 edgeD-0-2"/>
   </vehicle>
   <vehicle id="46" depart="460">
      <route edges="edgeD-2-0 edgeR-2-0 edgeD-1-1 edgeR-1-1 edgeD-0-2"/>
   </vehicle>
   <vehicle id="47" depart="470">
      <route edges="edgeD-2-0 edgeR-2-0 edgeD-1-1 edgeR-1-1 edgeD-0-2"/>
   </vehicle>
   <vehicle id="48" depart="480">
      <route edges="edgeD-2-0 edgeR-2-0 edgeD-1-1 edgeR-1-1 edgeD-0-2"/>
   </vehicle>
   <vehicle id="49" depart="490">
      <route edges="edgeD-2-0 edgeR-2-0 edgeD-1-1 edgeR-1-1 edgeD-0-2"/>
   </vehicle>
   <vehicle id="50" depart="500">
      <route edges="edgeD-2-0 edgeR-2-0 edgeD-1-1 edgeR-1-1 edgeD-0-2"/>
   </vehicle>
   <vehicle id="51" depart="510">
      <route edges="edgeD-2-0 edgeR-2-0 edgeD-1-1 edgeR-1-1 edgeD-0-2"/>
   </vehicle>
   <vehicle id="52" depart="520">
      <route edges="edgeD-2-0 edgeR-2-0 edgeD-1-1 edgeR-1-1 edgeD-0-2"/>
   </vehicle>
   <vehicle id="53" depart="530">
      <route edges="edgeD-2-0 edgeR-2-0 edgeD-1-1 edgeR-1-1 edgeD-0-2"/>
   </vehicle>
   <vehicle id="54" depart="540">
      <route edges="edgeD-2-0 edgeR-2-0 edgeD-1-1 edgeR-1-1 edgeD-0-2"/>
   </vehicle>
   <vehicle id="55" depart="550">
      <route edges="edgeD-2-0 edgeR-2-0 edgeD-1-1 edgeR-1-1 edgeD-0-2"/>
   </vehicle>
   <vehicle id="56" depart="560">
      <route edges="edgeD-2-0 edgeR-2-0 edgeD-1-1 edgeR-1-1 edgeD-0-2"/>
   </vehicle>
   <vehicle id="57" depart="570">
      <route edges="edgeD-2-0 edgeR-2-0 edgeD-1-1 edgeR-1-1 edgeD-0-2"/>
   </vehicle>
   <vehicle id="58" depart="580">
      <route edges="edgeD-2-0 edgeR-2-0 edgeD-1-1 edgeR-1-1 edgeD-0-2"/>
   </vehicle>
   <vehicle id="59" depart="590">
      <route edges="edgeD-2-0 edgeR-2-0 edgeD-1-1 edgeR-1-1 edgeD-0-2"/>
   </vehicle>
   <vehicle id="60" depart="600">
      <route edges="edgeD-2-0 edgeR-2-0 edgeD-1-1 edgeR-1-1 edgeD-0-2"/>
   </vehicle>
   <vehicle id="61" depart="610">
      <route edges="edgeD-2-0 edgeR-2-0 edgeD-1-1 edgeR-1-1 edgeD-0-2"/>
   </vehicle>
   <vehicle id="62" depart="620">
      <route edges="edgeD-2-0 edgeR-2-0 edgeD-1-1 edgeR-1-1 edgeD-0-2"/>
   </vehicle>
   <vehicle id="63" depart="630">
      <route edges="edgeD-2-0 edgeR-2-0 edgeD-1-1 edgeR-1-1 edgeD-0-2"/>
   </vehicle>
   <vehicle id="64" depart="640">
      <route edges="edgeD-2-0 edgeR-2-0 edgeD-1-1 edgeR-1-1 edgeD-0-2"/>
   </vehicle>
   <vehicle id="65" depart="650">
      <route edges="edgeD-2-0 edgeR-2-0 edgeD-1-1 edgeR-1-1 edgeD-0-2"/>
   </vehicle>
   <vehicle id="66" depart="660">
      <route edges="edgeD-2-0 edgeR-2-0 edgeD-1-1 edgeR-1-1 edgeD-0-2"/>
   </vehicle>
   <vehicle id="67" depart="670">
      <route edges="edgeD-2-0 edgeR-2-0 edgeD-1-1 edgeR-1-1 edgeD-0-2"/>
   </vehicle>
   <vehicle id="68" depart="680">
      <route edges="edgeD-2-0 edgeR-2-0 edgeD-1-1 edgeR-1-1 edgeD-0-2"/>
   </vehicle>
   <vehicle id="69" depart="690">
      <route edges="edgeD-2-0 edgeR-2-0 edgeD-1-1 edgeR-1-1 edgeD-0-2"/>
   </vehicle>
   <vehicle id="70" depart="700">
      <route edges="edgeD-2-0 edgeR-2-0 edgeD-1-1 edgeR-1-1 edgeD-0-2"/>
   </vehicle>
   <vehicle id="71" depart="710">
      <route edges="edgeD-2-0 edgeR-2-0 edgeD-1-1 edgeR-1-1 edgeD-0-2"/>
   </vehicle>
   <vehicle id="72" depart="720">
      <route edges="edgeD-2-0 edgeR-2-0 edgeD-1-1 edgeR-1-1 edgeD-0-2"/>
   </vehicle>
   <vehicle id="73" depart="730">
      <route edges="edgeD-2-0 edgeR-2-0 edgeD-1-1 edgeR-1-1 edgeD-0-2"/>
   </vehicle>
   <vehicle id="74" depart="740">
      <route edges="edgeD-2-0 edgeR-2-0 edgeD-1-1 edgeR-1-1 edgeD-0-2"/>
   </vehicle>
   <vehicle id="75" depart="750">
      <route edges="edgeD-2-0 edgeR-2-0 edgeD-1-1 edgeR-1-1 edgeD-0-2"/>
   </vehicle>
   <vehicle id="76" depart="760">
      <route edges="edgeD-2-0 edgeR-2-0 edgeD-1-1 edgeR-1-1 edgeD-0-2"/>
   </vehicle>
   <vehicle id="77" depart="770">
      <route edges="edgeD-2-0 edgeR-2-0 edgeD-1-1 edgeR-1-1 edgeD-0-2"/>
   </vehicle>
   <vehicle id="78" depart="780">
      <route edges="edgeD-2-0 edgeR-2-0 edgeD-1-1 edgeR-1-1 edgeD-0-2"/>
   </vehicle>
   <vehicle id="79" depart="790">
      <route edges="edgeD-2-0 edgeR-2-0 edgeD-1-1 edgeR-1-1 edgeD-0-2"/>
   </vehicle>
   <vehicle id="80" depart="800">
      <route edges="edgeD-2-0 edgeR-2-0 edgeD-1-1 edgeR-1-1 edgeD-0-2"/>
   </vehicle>
   <vehicle id="81" depart="810">
      <route edges="edgeD-2-0 edgeR-2-0 edgeD-1-1 edgeR-1-1 edgeD-0-2"/>
   </vehicle>
   <vehicle id="82" depart="820">
      <route edges="edgeD-2-0 edgeR-2-0 edgeD-1-1 edgeR-1-1 edgeD-0-2"/>
   </vehicle>
   <vehicle id="83" depart="830">
      <route edges="edgeD-2-0 edgeR-2-0 edgeD-1-1 edgeR-1-1 edgeD-0-2"/>
   </vehicle>
   <vehicle id="84" depart="840">
      <route edges="edgeD-2-0 edgeR-2-0 edgeD-1-1 edgeR-1-1 edgeD-0-2"/>
   </vehicle>
   <vehicle id="85" depart="850">
      <route edges="edgeD-2-0 edgeR-2-0 edgeD-1-1 edgeR-1-1 edgeD-0-2"/>
   </vehicle>
   <vehicle id="86" depart="860">
      <route edges="edgeD-2-0 edgeR-2-0 edgeD-1-1 edgeR-1-1 edgeD-0-2"/>
   </vehicle>
   <vehicle id="87" depart="870">
      <route edges="edgeD-2-0 edgeR-2-0 edgeD-1-1 edgeR-1-1 edgeD-0-2"/>
   </vehicle>
   <vehicle id="88" depart="880">
      <route edges="edgeD-2-0 edgeR-2-0 edgeD-1-1 edgeR-1-1 edgeD-0-2"/>
   </vehicle>
   <vehicle id="89" depart="890">
      <route edges="edgeD-2-0 edgeR-2-0 edgeD-1-1 edgeR-1-1 edgeD-0-2"/>
   </vehicle>
   <vehicle id="90" depart="900">
      <route edges="edgeD-2-0 edgeR-2-0 edgeD-1-1 edgeR-1-1 edgeD-0-2"/>
   </vehicle>
   <vehicle id="91" depart="910">
      <route edges="edgeD-2-0 edgeR-2-0 edgeD-1-1 edgeR-1-1 edgeD-0-2"/>
   </vehicle>
   <vehicle id="92" depart="920">
      <route edges="edgeD-2-0 edgeR-2-0 edgeD-1-1 edgeR-1-1 edgeD-0-2"/>
   </vehicle>
   <vehicle id="93" depart="930">
      <route edges="edgeD-2-0 edgeR-2-0 edgeD-1-1 edgeR-1-1 edgeD-0-2"/>
   </vehicle>
   <vehicle id="94" depart="940">
      <route edges="edgeD-2-0 edgeR-2-0 edgeD-1-1 edgeR-1-1 edgeD-0-2"/>
   </vehicle>
   <vehicle id="95" depart="950">
      <route edges="edgeD-2-0 edgeR-2-0 edgeD-1-1 edgeR-1-1 edgeD-0-2"/>
   </vehicle>
   <vehicle id="96" depart="960">
      <route edges="edgeD-2-0 edgeR-2-0 edgeD-1-1 edgeR-1-1 edgeD-0-2"/>
   </vehicle>
   <vehicle id="97" depart="970">
      <route edges="edgeD-2-0 edgeR-2-0 edgeD-1-1 edgeR-1-1 edgeD-0-2"/>
   </vehicle>
   <vehicle id="98" depart="980">
      <route edges="edgeD-2-0 edgeR-2-0 edgeD-1-1 edgeR-1-1 edgeD-0-2"/>
   </vehicle>
   <vehicle id="99" depart="990">
      <route edges="edgeD-2-0 edgeR-2-0 edgeD-1-1 edgeR-1-1 edgeD-0-2"/>
   </vehicle>
</routes>
