<?xml version="1.0"?>

<!-- generated on 12/15/09 15:28:24 by SUMO netconvert Version 0.11.0
<configuration>

    <input
        xml-node-files="C:\For_MOVE\MOVE_example\ex_NODE.nod.xml"
        xml-edge-files="C:\For_MOVE\MOVE_example\ex_EDGE.edg.xml"
    />

    <output
        output-file="C:\For_MOVE\MOVE_example\ex_Map.net.xml"
    />

    <processing
        speed-in-kmh="false"
        remove-geometry="true"
        no-turnarounds="false"
    />

    <building_defaults
        type="Unknown"
        lanenumber="1"
        speed="40"
        priority="75"
    />

    <report
        verbose="true"
        print-options="false"
    />

</configuration>
-->

<net>

   <location netOffset="-100.00,-100.00" convBoundary="0.00,0.00,600.00,700.00" origBoundary="100.00,100.00,700.00,800.00" projParameter="!"/>

   <edge id=":node1_0" function="internal">
      <lanes>
         <lane id=":node1_0_0" depart="0" maxspeed="40.00" length="18.55" shape="-4.95,6.55 -4.23,1.52 -2.07,-2.07 1.52,-4.23 6.55,-4.95"/>
      </lanes>
   </edge>

   <edge id=":node1_1" function="internal">
      <lanes>
         <lane id=":node1_1_0" depart="0" maxspeed="40.00" length="13.22" shape="-1.65,6.55 -1.14,2.96 0.40,0.40 2.96,-1.14 6.55,-1.65"/>
      </lanes>
   </edge>

   <edge id=":node1_2" function="internal">
      <lanes>
         <lane id=":node1_2_0" depart="0" maxspeed="40.00" length="0.10" shape="-1.65,6.55 -0.88,5.40"/>
      </lanes>
   </edge>

   <edge id=":node1_6" function="internal">
      <lanes>
         <lane id=":node1_6_0" depart="0" maxspeed="40.00" length="4.72" shape="-0.88,5.40 -0.82,5.31 0.00,4.90 0.83,5.31 1.65,6.55"/>
      </lanes>
   </edge>

   <edge id=":node1_3" function="internal">
      <lanes>
         <lane id=":node1_3_0" depart="0" maxspeed="40.00" length="2.58" shape="6.55,4.95 5.85,5.05 5.35,5.35 5.05,5.85 4.95,6.55"/>
      </lanes>
   </edge>

   <edge id=":node1_4" function="internal">
      <lanes>
         <lane id=":node1_4_0" depart="0" maxspeed="40.00" length="7.90" shape="6.55,1.65 4.41,1.96 2.87,2.88 1.96,4.41 1.65,6.55"/>
      </lanes>
   </edge>

   <edge id=":node1_5" function="internal">
      <lanes>
         <lane id=":node1_5_0" depart="0" maxspeed="40.00" length="0.10" shape="6.55,1.65 5.40,0.88"/>
      </lanes>
   </edge>

   <edge id=":node1_7" function="internal">
      <lanes>
         <lane id=":node1_7_0" depart="0" maxspeed="40.00" length="4.72" shape="5.40,0.88 5.31,0.82 4.90,-0.00 5.31,-0.83 6.55,-1.65"/>
      </lanes>
   </edge>

   <edge id=":node10_0" function="internal">
      <lanes>
         <lane id=":node10_0_0" depart="0" maxspeed="40.00" length="18.55" shape="6.55,704.95 1.52,704.23 -2.08,702.08 -4.23,698.48 -4.95,693.45"/>
      </lanes>
   </edge>

   <edge id=":node10_1" function="internal">
      <lanes>
         <lane id=":node10_1_0" depart="0" maxspeed="40.00" length="13.22" shape="6.55,701.65 2.96,701.14 0.40,699.60 -1.14,697.04 -1.65,693.45"/>
      </lanes>
   </edge>

   <edge id=":node10_2" function="internal">
      <lanes>
         <lane id=":node10_2_0" depart="0" maxspeed="40.00" length="0.10" shape="6.55,701.65 5.40,700.88"/>
      </lanes>
   </edge>

   <edge id=":node10_6" function="internal">
      <lanes>
         <lane id=":node10_6_0" depart="0" maxspeed="40.00" length="4.72" shape="5.40,700.88 5.31,700.82 4.90,700.00 5.31,699.17 6.55,698.35"/>
      </lanes>
   </edge>

   <edge id=":node10_3" function="internal">
      <lanes>
         <lane id=":node10_3_0" depart="0" maxspeed="40.00" length="2.58" shape="4.95,693.45 5.05,694.15 5.35,694.65 5.85,694.95 6.55,695.05"/>
      </lanes>
   </edge>

   <edge id=":node10_4" function="internal">
      <lanes>
         <lane id=":node10_4_0" depart="0" maxspeed="40.00" length="7.90" shape="1.65,693.45 1.96,695.59 2.88,697.13 4.41,698.04 6.55,698.35"/>
      </lanes>
   </edge>

   <edge id=":node10_5" function="internal">
      <lanes>
         <lane id=":node10_5_0" depart="0" maxspeed="40.00" length="0.10" shape="1.65,693.45 0.88,694.60"/>
      </lanes>
   </edge>

   <edge id=":node10_7" function="internal">
      <lanes>
         <lane id=":node10_7_0" depart="0" maxspeed="40.00" length="4.72" shape="0.88,694.60 0.82,694.69 -0.00,695.10 -0.83,694.69 -1.65,693.45"/>
      </lanes>
   </edge>

   <edge id=":node11_0" function="internal">
      <lanes>
         <lane id=":node11_0_0" depart="0" maxspeed="40.00" length="16.10" shape="308.05,704.95 303.27,704.95 300.00,704.95 296.73,704.95 291.95,704.95"/>
      </lanes>
   </edge>

   <edge id=":node11_1" function="internal">
      <lanes>
         <lane id=":node11_1_0" depart="0" maxspeed="40.00" length="16.10" shape="308.05,701.65 303.27,701.65 300.00,701.65 296.73,701.65 291.95,701.65"/>
      </lanes>
   </edge>

   <edge id=":node11_2" function="internal">
      <lanes>
         <lane id=":node11_2_0" depart="0" maxspeed="40.00" length="15.64" shape="308.05,701.65 303.81,701.04 300.78,699.23 298.96,696.19 298.35,691.95"/>
      </lanes>
   </edge>

   <edge id=":node11_3" function="internal">
      <lanes>
         <lane id=":node11_3_0" depart="0" maxspeed="40.00" length="4.82" shape="308.05,701.65 306.81,700.82 306.40,700.00 306.81,699.17 308.05,698.35"/>
      </lanes>
   </edge>

   <edge id=":node11_4" function="internal">
      <lanes>
         <lane id=":node11_4_0" depart="0" maxspeed="40.00" length="5.00" shape="304.95,691.95 305.14,693.31 305.73,694.28 306.69,694.86 308.05,695.05"/>
      </lanes>
   </edge>

   <edge id=":node11_5" function="internal">
      <lanes>
         <lane id=":node11_5_0" depart="0" maxspeed="40.00" length="15.64" shape="301.65,691.95 301.04,696.19 299.22,699.22 296.19,701.04 291.95,701.65"/>
      </lanes>
   </edge>

   <edge id=":node11_6" function="internal">
      <lanes>
         <lane id=":node11_6_0" depart="0" maxspeed="40.00" length="4.82" shape="301.65,691.95 300.82,693.19 300.00,693.60 299.17,693.19 298.35,691.95"/>
      </lanes>
   </edge>

   <edge id=":node11_7" function="internal">
      <lanes>
         <lane id=":node11_7_0" depart="0" maxspeed="40.00" length="5.00" shape="291.95,695.05 293.31,694.86 294.27,694.27 294.86,693.31 295.05,691.95"/>
      </lanes>
   </edge>

   <edge id=":node11_8" function="internal">
      <lanes>
         <lane id=":node11_8_0" depart="0" maxspeed="40.00" length="16.10" shape="291.95,695.05 296.73,695.05 300.00,695.05 303.27,695.05 308.05,695.05"/>
      </lanes>
   </edge>

   <edge id=":node11_9" function="internal">
      <lanes>
         <lane id=":node11_9_0" depart="0" maxspeed="40.00" length="16.10" shape="291.95,698.35 296.73,698.35 300.00,698.35 303.27,698.35 308.05,698.35"/>
      </lanes>
   </edge>

   <edge id=":node11_10" function="internal">
      <lanes>
         <lane id=":node11_10_0" depart="0" maxspeed="40.00" length="4.82" shape="291.95,698.35 293.19,699.18 293.60,700.00 293.19,700.83 291.95,701.65"/>
      </lanes>
   </edge>

   <edge id=":node12_0" function="internal">
      <lanes>
         <lane id=":node12_0_0" depart="0" maxspeed="40.00" length="18.55" shape="604.95,693.45 604.23,698.48 602.08,702.08 598.48,704.23 593.45,704.95"/>
      </lanes>
   </edge>

   <edge id=":node12_1" function="internal">
      <lanes>
         <lane id=":node12_1_0" depart="0" maxspeed="40.00" length="13.22" shape="601.65,693.45 601.14,697.04 599.60,699.60 597.04,701.14 593.45,701.65"/>
      </lanes>
   </edge>

   <edge id=":node12_2" function="internal">
      <lanes>
         <lane id=":node12_2_0" depart="0" maxspeed="40.00" length="0.10" shape="601.65,693.45 600.88,694.60"/>
      </lanes>
   </edge>

   <edge id=":node12_6" function="internal">
      <lanes>
         <lane id=":node12_6_0" depart="0" maxspeed="40.00" length="4.72" shape="600.88,694.60 600.82,694.69 600.00,695.10 599.17,694.69 598.35,693.45"/>
      </lanes>
   </edge>

   <edge id=":node12_3" function="internal">
      <lanes>
         <lane id=":node12_3_0" depart="0" maxspeed="40.00" length="2.58" shape="593.45,695.05 594.15,694.95 594.65,694.65 594.95,694.15 595.05,693.45"/>
      </lanes>
   </edge>

   <edge id=":node12_4" function="internal">
      <lanes>
         <lane id=":node12_4_0" depart="0" maxspeed="40.00" length="7.90" shape="593.45,698.35 595.59,698.04 597.13,697.12 598.04,695.59 598.35,693.45"/>
      </lanes>
   </edge>

   <edge id=":node12_5" function="internal">
      <lanes>
         <lane id=":node12_5_0" depart="0" maxspeed="40.00" length="0.10" shape="593.45,698.35 594.60,699.12"/>
      </lanes>
   </edge>

   <edge id=":node12_7" function="internal">
      <lanes>
         <lane id=":node12_7_0" depart="0" maxspeed="40.00" length="4.72" shape="594.60,699.12 594.69,699.18 595.10,700.00 594.69,700.83 593.45,701.65"/>
      </lanes>
   </edge>

   <edge id=":node2_0" function="internal">
      <lanes>
         <lane id=":node2_0_0" depart="0" maxspeed="40.00" length="5.00" shape="295.05,8.05 294.86,6.69 294.27,5.73 293.31,5.14 291.95,4.95"/>
      </lanes>
   </edge>

   <edge id=":node2_1" function="internal">
      <lanes>
         <lane id=":node2_1_0" depart="0" maxspeed="40.00" length="15.64" shape="298.35,8.05 298.96,3.81 300.78,0.78 303.81,-1.04 308.05,-1.65"/>
      </lanes>
   </edge>

   <edge id=":node2_2" function="internal">
      <lanes>
         <lane id=":node2_2_0" depart="0" maxspeed="40.00" length="4.82" shape="298.35,8.05 299.18,6.81 300.00,6.40 300.83,6.81 301.65,8.05"/>
      </lanes>
   </edge>

   <edge id=":node2_3" function="internal">
      <lanes>
         <lane id=":node2_3_0" depart="0" maxspeed="40.00" length="5.00" shape="308.05,4.95 306.69,5.14 305.73,5.73 305.14,6.69 304.95,8.05"/>
      </lanes>
   </edge>

   <edge id=":node2_4" function="internal">
      <lanes>
         <lane id=":node2_4_0" depart="0" maxspeed="40.00" length="16.10" shape="308.05,4.95 303.27,4.95 300.00,4.95 296.73,4.95 291.95,4.95"/>
      </lanes>
   </edge>

   <edge id=":node2_5" function="internal">
      <lanes>
         <lane id=":node2_5_0" depart="0" maxspeed="40.00" length="16.10" shape="308.05,1.65 303.27,1.65 300.00,1.65 296.73,1.65 291.95,1.65"/>
      </lanes>
   </edge>

   <edge id=":node2_6" function="internal">
      <lanes>
         <lane id=":node2_6_0" depart="0" maxspeed="40.00" length="4.82" shape="308.05,1.65 306.81,0.82 306.40,-0.00 306.81,-0.83 308.05,-1.65"/>
      </lanes>
   </edge>

   <edge id=":node2_7" function="internal">
      <lanes>
         <lane id=":node2_7_0" depart="0" maxspeed="40.00" length="16.10" shape="291.95,-4.95 296.73,-4.95 300.00,-4.95 303.27,-4.95 308.05,-4.95"/>
      </lanes>
   </edge>

   <edge id=":node2_8" function="internal">
      <lanes>
         <lane id=":node2_8_0" depart="0" maxspeed="40.00" length="16.10" shape="291.95,-1.65 296.73,-1.65 300.00,-1.65 303.27,-1.65 308.05,-1.65"/>
      </lanes>
   </edge>

   <edge id=":node2_9" function="internal">
      <lanes>
         <lane id=":node2_9_0" depart="0" maxspeed="40.00" length="15.64" shape="291.95,-1.65 296.19,-1.04 299.23,0.78 301.04,3.81 301.65,8.05"/>
      </lanes>
   </edge>

   <edge id=":node2_10" function="internal">
      <lanes>
         <lane id=":node2_10_0" depart="0" maxspeed="40.00" length="4.82" shape="291.95,-1.65 293.19,-0.82 293.60,0.00 293.19,0.83 291.95,1.65"/>
      </lanes>
   </edge>

   <edge id=":node3_0" function="internal">
      <lanes>
         <lane id=":node3_0_0" depart="0" maxspeed="40.00" length="2.58" shape="595.05,6.55 594.95,5.85 594.65,5.35 594.15,5.05 593.45,4.95"/>
      </lanes>
   </edge>

   <edge id=":node3_1" function="internal">
      <lanes>
         <lane id=":node3_1_0" depart="0" maxspeed="40.00" length="7.90" shape="598.35,6.55 598.04,4.41 597.13,2.88 595.59,1.96 593.45,1.65"/>
      </lanes>
   </edge>

   <edge id=":node3_2" function="internal">
      <lanes>
         <lane id=":node3_2_0" depart="0" maxspeed="40.00" length="0.10" shape="598.35,6.55 599.12,5.40"/>
      </lanes>
   </edge>

   <edge id=":node3_6" function="internal">
      <lanes>
         <lane id=":node3_6_0" depart="0" maxspeed="40.00" length="4.72" shape="599.12,5.40 599.18,5.31 600.00,4.90 600.83,5.31 601.65,6.55"/>
      </lanes>
   </edge>

   <edge id=":node3_3" function="internal">
      <lanes>
         <lane id=":node3_3_0" depart="0" maxspeed="40.00" length="18.55" shape="593.45,-4.95 598.48,-4.23 602.08,-2.07 604.23,1.52 604.95,6.55"/>
      </lanes>
   </edge>

   <edge id=":node3_4" function="internal">
      <lanes>
         <lane id=":node3_4_0" depart="0" maxspeed="40.00" length="13.22" shape="593.45,-1.65 597.04,-1.14 599.60,0.40 601.14,2.96 601.65,6.55"/>
      </lanes>
   </edge>

   <edge id=":node3_5" function="internal">
      <lanes>
         <lane id=":node3_5_0" depart="0" maxspeed="40.00" length="0.10" shape="593.45,-1.65 594.60,-0.88"/>
      </lanes>
   </edge>

   <edge id=":node3_7" function="internal">
      <lanes>
         <lane id=":node3_7_0" depart="0" maxspeed="40.00" length="4.72" shape="594.60,-0.88 594.69,-0.82 595.10,0.00 594.69,0.83 593.45,1.65"/>
      </lanes>
   </edge>

   <edge id=":node4_0" function="internal">
      <lanes>
         <lane id=":node4_0_0" depart="0" maxspeed="40.00" length="16.10" shape="-4.95,208.05 -4.95,203.27 -4.95,200.00 -4.95,196.73 -4.95,191.95"/>
      </lanes>
   </edge>

   <edge id=":node4_1" function="internal">
      <lanes>
         <lane id=":node4_1_0" depart="0" maxspeed="40.00" length="16.10" shape="-1.65,208.05 -1.65,203.27 -1.65,200.00 -1.65,196.73 -1.65,191.95"/>
      </lanes>
   </edge>

   <edge id=":node4_2" function="internal">
      <lanes>
         <lane id=":node4_2_0" depart="0" maxspeed="40.00" length="8.84" shape="-1.65,208.05 -1.04,203.81 2.93,199.48"/>
      </lanes>
   </edge>

   <edge id=":node4_11" function="internal">
      <lanes>
         <lane id=":node4_11_0" depart="0" maxspeed="40.00" length="6.80" shape="2.93,199.48 3.81,198.96 8.05,198.35"/>
      </lanes>
   </edge>

   <edge id=":node4_3" function="internal">
      <lanes>
         <lane id=":node4_3_0" depart="0" maxspeed="40.00" length="0.10" shape="-1.65,208.05 -0.88,206.90"/>
      </lanes>
   </edge>

   <edge id=":node4_12" function="internal">
      <lanes>
         <lane id=":node4_12_0" depart="0" maxspeed="40.00" length="4.72" shape="-0.88,206.90 -0.83,206.81 -0.00,206.40 0.82,206.81 1.65,208.05"/>
      </lanes>
   </edge>

   <edge id=":node4_4" function="internal">
      <lanes>
         <lane id=":node4_4_0" depart="0" maxspeed="40.00" length="5.00" shape="8.05,204.95 6.69,205.14 5.73,205.72 5.14,206.69 4.95,208.05"/>
      </lanes>
   </edge>

   <edge id=":node4_5" function="internal">
      <lanes>
         <lane id=":node4_5_0" depart="0" maxspeed="40.00" length="3.13" shape="8.05,201.65 6.91,201.49"/>
      </lanes>
   </edge>

   <edge id=":node4_13" function="internal">
      <lanes>
         <lane id=":node4_13_0" depart="0" maxspeed="40.00" length="12.51" shape="6.91,201.49 3.81,201.04 0.78,199.22 -1.04,196.19 -1.65,191.95"/>
      </lanes>
   </edge>

   <edge id=":node4_6" function="internal">
      <lanes>
         <lane id=":node4_6_0" depart="0" maxspeed="40.00" length="0.10" shape="8.05,201.65 6.90,200.88"/>
      </lanes>
   </edge>

   <edge id=":node4_14" function="internal">
      <lanes>
         <lane id=":node4_14_0" depart="0" maxspeed="40.00" length="4.72" shape="6.90,200.88 6.81,200.83 6.40,200.00 6.81,199.18 8.05,198.35"/>
      </lanes>
   </edge>

   <edge id=":node4_7" function="internal">
      <lanes>
         <lane id=":node4_7_0" depart="0" maxspeed="40.00" length="5.00" shape="4.95,191.95 5.14,193.31 5.73,194.27 6.69,194.86 8.05,195.05"/>
      </lanes>
   </edge>

   <edge id=":node4_8" function="internal">
      <lanes>
         <lane id=":node4_8_0" depart="0" maxspeed="40.00" length="16.10" shape="4.95,191.95 4.95,196.73 4.95,200.00 4.95,203.27 4.95,208.05"/>
      </lanes>
   </edge>

   <edge id=":node4_9" function="internal">
      <lanes>
         <lane id=":node4_9_0" depart="0" maxspeed="40.00" length="16.10" shape="1.65,191.95 1.65,196.73 1.65,200.00 1.65,203.27 1.65,208.05"/>
      </lanes>
   </edge>

   <edge id=":node4_10" function="internal">
      <lanes>
         <lane id=":node4_10_0" depart="0" maxspeed="40.00" length="0.10" shape="1.65,191.95 0.88,193.10"/>
      </lanes>
   </edge>

   <edge id=":node4_15" function="internal">
      <lanes>
         <lane id=":node4_15_0" depart="0" maxspeed="40.00" length="4.72" shape="0.88,193.10 0.82,193.19 -0.00,193.60 -0.83,193.19 -1.65,191.95"/>
      </lanes>
   </edge>

   <edge id=":node5_0" function="internal">
      <lanes>
         <lane id=":node5_0_0" depart="0" maxspeed="40.00" length="5.00" shape="295.05,208.05 294.86,206.69 294.27,205.73 293.31,205.14 291.95,204.95"/>
      </lanes>
   </edge>

   <edge id=":node5_1" function="internal">
      <lanes>
         <lane id=":node5_1_0" depart="0" maxspeed="40.00" length="16.10" shape="295.05,208.05 295.05,203.27 295.05,200.00 295.05,196.73 295.05,191.95"/>
      </lanes>
   </edge>

   <edge id=":node5_2" function="internal">
      <lanes>
         <lane id=":node5_2_0" depart="0" maxspeed="40.00" length="16.10" shape="298.35,208.05 298.35,203.27 298.35,200.00 298.35,196.73 298.35,191.95"/>
      </lanes>
   </edge>

   <edge id=":node5_3" function="internal">
      <lanes>
         <lane id=":node5_3_0" depart="0" maxspeed="40.00" length="8.84" shape="298.35,208.05 298.96,203.81 302.93,199.48"/>
      </lanes>
   </edge>

   <edge id=":node5_18" function="internal">
      <lanes>
         <lane id=":node5_18_0" depart="0" maxspeed="40.00" length="6.80" shape="302.93,199.48 303.81,198.96 308.05,198.35"/>
      </lanes>
   </edge>

   <edge id=":node5_4" function="internal">
      <lanes>
         <lane id=":node5_4_0" depart="0" maxspeed="40.00" length="0.10" shape="298.35,208.05 299.12,206.90"/>
      </lanes>
   </edge>

   <edge id=":node5_19" function="internal">
      <lanes>
         <lane id=":node5_19_0" depart="0" maxspeed="40.00" length="4.72" shape="299.12,206.90 299.18,206.81 300.00,206.40 300.83,206.81 301.65,208.05"/>
      </lanes>
   </edge>

   <edge id=":node5_5" function="internal">
      <lanes>
         <lane id=":node5_5_0" depart="0" maxspeed="40.00" length="5.00" shape="308.05,204.95 306.69,205.14 305.73,205.72 305.14,206.69 304.95,208.05"/>
      </lanes>
   </edge>

   <edge id=":node5_6" function="internal">
      <lanes>
         <lane id=":node5_6_0" depart="0" maxspeed="40.00" length="16.10" shape="308.05,201.65 303.27,201.65 300.00,201.65 296.73,201.65 291.95,201.65"/>
      </lanes>
   </edge>

   <edge id=":node5_7" function="internal">
      <lanes>
         <lane id=":node5_7_0" depart="0" maxspeed="40.00" length="3.13" shape="308.05,201.65 306.91,201.49"/>
      </lanes>
   </edge>

   <edge id=":node5_20" function="internal">
      <lanes>
         <lane id=":node5_20_0" depart="0" maxspeed="40.00" length="12.51" shape="306.91,201.49 303.81,201.04 300.78,199.22 298.96,196.19 298.35,191.95"/>
      </lanes>
   </edge>

   <edge id=":node5_8" function="internal">
      <lanes>
         <lane id=":node5_8_0" depart="0" maxspeed="40.00" length="0.10" shape="308.05,201.65 306.90,200.88"/>
      </lanes>
   </edge>

   <edge id=":node5_21" function="internal">
      <lanes>
         <lane id=":node5_21_0" depart="0" maxspeed="40.00" length="4.72" shape="306.90,200.88 306.81,200.83 306.40,200.00 306.81,199.18 308.05,198.35"/>
      </lanes>
   </edge>

   <edge id=":node5_9" function="internal">
      <lanes>
         <lane id=":node5_9_0" depart="0" maxspeed="40.00" length="5.00" shape="304.95,191.95 305.14,193.31 305.73,194.27 306.69,194.86 308.05,195.05"/>
      </lanes>
   </edge>

   <edge id=":node5_10" function="internal">
      <lanes>
         <lane id=":node5_10_0" depart="0" maxspeed="40.00" length="16.10" shape="304.95,191.95 304.95,196.73 304.95,200.00 304.95,203.27 304.95,208.05"/>
      </lanes>
   </edge>

   <edge id=":node5_11" function="internal">
      <lanes>
         <lane id=":node5_11_0" depart="0" maxspeed="40.00" length="16.10" shape="301.65,191.95 301.65,196.73 301.65,200.00 301.65,203.27 301.65,208.05"/>
      </lanes>
   </edge>

   <edge id=":node5_12" function="internal">
      <lanes>
         <lane id=":node5_12_0" depart="0" maxspeed="40.00" length="8.84" shape="301.65,191.95 301.04,196.19 297.07,200.52"/>
      </lanes>
   </edge>

   <edge id=":node5_22" function="internal">
      <lanes>
         <lane id=":node5_22_0" depart="0" maxspeed="40.00" length="6.80" shape="297.07,200.52 296.19,201.04 291.95,201.65"/>
      </lanes>
   </edge>

   <edge id=":node5_13" function="internal">
      <lanes>
         <lane id=":node5_13_0" depart="0" maxspeed="40.00" length="0.10" shape="301.65,191.95 300.88,193.10"/>
      </lanes>
   </edge>

   <edge id=":node5_23" function="internal">
      <lanes>
         <lane id=":node5_23_0" depart="0" maxspeed="40.00" length="4.72" shape="300.88,193.10 300.82,193.19 300.00,193.60 299.17,193.19 298.35,191.95"/>
      </lanes>
   </edge>

   <edge id=":node5_14" function="internal">
      <lanes>
         <lane id=":node5_14_0" depart="0" maxspeed="40.00" length="5.00" shape="291.95,195.05 293.31,194.86 294.27,194.28 294.86,193.31 295.05,191.95"/>
      </lanes>
   </edge>

   <edge id=":node5_15" function="internal">
      <lanes>
         <lane id=":node5_15_0" depart="0" maxspeed="40.00" length="16.10" shape="291.95,198.35 296.73,198.35 300.00,198.35 303.27,198.35 308.05,198.35"/>
      </lanes>
   </edge>

   <edge id=":node5_16" function="internal">
      <lanes>
         <lane id=":node5_16_0" depart="0" maxspeed="40.00" length="3.13" shape="291.95,198.35 293.09,198.51"/>
      </lanes>
   </edge>

   <edge id=":node5_24" function="internal">
      <lanes>
         <lane id=":node5_24_0" depart="0" maxspeed="40.00" length="12.51" shape="293.09,198.51 296.19,198.96 299.23,200.78 301.04,203.81 301.65,208.05"/>
      </lanes>
   </edge>

   <edge id=":node5_17" function="internal">
      <lanes>
         <lane id=":node5_17_0" depart="0" maxspeed="40.00" length="0.10" shape="291.95,198.35 293.10,199.12"/>
      </lanes>
   </edge>

   <edge id=":node5_25" function="internal">
      <lanes>
         <lane id=":node5_25_0" depart="0" maxspeed="40.00" length="4.72" shape="293.10,199.12 293.19,199.17 293.60,200.00 293.19,200.82 291.95,201.65"/>
      </lanes>
   </edge>

   <edge id=":node6_0" function="internal">
      <lanes>
         <lane id=":node6_0_0" depart="0" maxspeed="40.00" length="5.00" shape="595.05,208.05 594.86,206.69 594.27,205.73 593.31,205.14 591.95,204.95"/>
      </lanes>
   </edge>

   <edge id=":node6_1" function="internal">
      <lanes>
         <lane id=":node6_1_0" depart="0" maxspeed="40.00" length="16.10" shape="595.05,208.05 595.05,203.27 595.05,200.00 595.05,196.73 595.05,191.95"/>
      </lanes>
   </edge>

   <edge id=":node6_2" function="internal">
      <lanes>
         <lane id=":node6_2_0" depart="0" maxspeed="40.00" length="16.10" shape="598.35,208.05 598.35,203.27 598.35,200.00 598.35,196.73 598.35,191.95"/>
      </lanes>
   </edge>

   <edge id=":node6_3" function="internal">
      <lanes>
         <lane id=":node6_3_0" depart="0" maxspeed="40.00" length="0.10" shape="598.35,208.05 599.12,206.90"/>
      </lanes>
   </edge>

   <edge id=":node6_11" function="internal">
      <lanes>
         <lane id=":node6_11_0" depart="0" maxspeed="40.00" length="4.72" shape="599.12,206.90 599.18,206.81 600.00,206.40 600.83,206.81 601.65,208.05"/>
      </lanes>
   </edge>

   <edge id=":node6_4" function="internal">
      <lanes>
         <lane id=":node6_4_0" depart="0" maxspeed="40.00" length="16.10" shape="604.95,191.95 604.95,196.73 604.95,200.00 604.95,203.27 604.95,208.05"/>
      </lanes>
   </edge>

   <edge id=":node6_5" function="internal">
      <lanes>
         <lane id=":node6_5_0" depart="0" maxspeed="40.00" length="16.10" shape="601.65,191.95 601.65,196.73 601.65,200.00 601.65,203.27 601.65,208.05"/>
      </lanes>
   </edge>

   <edge id=":node6_6" function="internal">
      <lanes>
         <lane id=":node6_6_0" depart="0" maxspeed="40.00" length="8.84" shape="601.65,191.95 601.04,196.19 597.07,200.52"/>
      </lanes>
   </edge>

   <edge id=":node6_12" function="internal">
      <lanes>
         <lane id=":node6_12_0" depart="0" maxspeed="40.00" length="6.80" shape="597.07,200.52 596.19,201.04 591.95,201.65"/>
      </lanes>
   </edge>

   <edge id=":node6_7" function="internal">
      <lanes>
         <lane id=":node6_7_0" depart="0" maxspeed="40.00" length="0.10" shape="601.65,191.95 600.88,193.10"/>
      </lanes>
   </edge>

   <edge id=":node6_13" function="internal">
      <lanes>
         <lane id=":node6_13_0" depart="0" maxspeed="40.00" length="4.72" shape="600.88,193.10 600.82,193.19 600.00,193.60 599.17,193.19 598.35,191.95"/>
      </lanes>
   </edge>

   <edge id=":node6_8" function="internal">
      <lanes>
         <lane id=":node6_8_0" depart="0" maxspeed="40.00" length="5.00" shape="591.95,195.05 593.31,194.86 594.28,194.28 594.86,193.31 595.05,191.95"/>
      </lanes>
   </edge>

   <edge id=":node6_9" function="internal">
      <lanes>
         <lane id=":node6_9_0" depart="0" maxspeed="40.00" length="3.13" shape="591.95,198.35 593.09,198.51"/>
      </lanes>
   </edge>

   <edge id=":node6_14" function="internal">
      <lanes>
         <lane id=":node6_14_0" depart="0" maxspeed="40.00" length="12.51" shape="593.09,198.51 596.19,198.96 599.23,200.78 601.04,203.81 601.65,208.05"/>
      </lanes>
   </edge>

   <edge id=":node6_10" function="internal">
      <lanes>
         <lane id=":node6_10_0" depart="0" maxspeed="40.00" length="0.10" shape="591.95,198.35 593.10,199.12"/>
      </lanes>
   </edge>

   <edge id=":node6_15" function="internal">
      <lanes>
         <lane id=":node6_15_0" depart="0" maxspeed="40.00" length="4.72" shape="593.10,199.12 593.19,199.17 593.60,200.00 593.19,200.82 591.95,201.65"/>
      </lanes>
   </edge>

   <edge id=":node7_0" function="internal">
      <lanes>
         <lane id=":node7_0_0" depart="0" maxspeed="40.00" length="16.10" shape="-4.95,508.05 -4.95,503.27 -4.95,500.00 -4.95,496.73 -4.95,491.95"/>
      </lanes>
   </edge>

   <edge id=":node7_1" function="internal">
      <lanes>
         <lane id=":node7_1_0" depart="0" maxspeed="40.00" length="16.10" shape="-1.65,508.05 -1.65,503.27 -1.65,500.00 -1.65,496.73 -1.65,491.95"/>
      </lanes>
   </edge>

   <edge id=":node7_2" function="internal">
      <lanes>
         <lane id=":node7_2_0" depart="0" maxspeed="40.00" length="8.84" shape="-1.65,508.05 -1.04,503.81 2.93,499.48"/>
      </lanes>
   </edge>

   <edge id=":node7_11" function="internal">
      <lanes>
         <lane id=":node7_11_0" depart="0" maxspeed="40.00" length="6.80" shape="2.93,499.48 3.81,498.96 8.05,498.35"/>
      </lanes>
   </edge>

   <edge id=":node7_3" function="internal">
      <lanes>
         <lane id=":node7_3_0" depart="0" maxspeed="40.00" length="0.10" shape="-1.65,508.05 -0.88,506.90"/>
      </lanes>
   </edge>

   <edge id=":node7_12" function="internal">
      <lanes>
         <lane id=":node7_12_0" depart="0" maxspeed="40.00" length="4.72" shape="-0.88,506.90 -0.82,506.81 0.00,506.40 0.83,506.81 1.65,508.05"/>
      </lanes>
   </edge>

   <edge id=":node7_4" function="internal">
      <lanes>
         <lane id=":node7_4_0" depart="0" maxspeed="40.00" length="5.00" shape="8.05,504.95 6.69,505.14 5.73,505.73 5.14,506.69 4.95,508.05"/>
      </lanes>
   </edge>

   <edge id=":node7_5" function="internal">
      <lanes>
         <lane id=":node7_5_0" depart="0" maxspeed="40.00" length="3.13" shape="8.05,501.65 6.91,501.49"/>
      </lanes>
   </edge>

   <edge id=":node7_13" function="internal">
      <lanes>
         <lane id=":node7_13_0" depart="0" maxspeed="40.00" length="12.51" shape="6.91,501.49 3.81,501.04 0.78,499.22 -1.04,496.19 -1.65,491.95"/>
      </lanes>
   </edge>

   <edge id=":node7_6" function="internal">
      <lanes>
         <lane id=":node7_6_0" depart="0" maxspeed="40.00" length="0.10" shape="8.05,501.65 6.90,500.88"/>
      </lanes>
   </edge>

   <edge id=":node7_14" function="internal">
      <lanes>
         <lane id=":node7_14_0" depart="0" maxspeed="40.00" length="4.72" shape="6.90,500.88 6.81,500.83 6.40,500.00 6.81,499.17 8.05,498.35"/>
      </lanes>
   </edge>

   <edge id=":node7_7" function="internal">
      <lanes>
         <lane id=":node7_7_0" depart="0" maxspeed="40.00" length="5.00" shape="4.95,491.95 5.14,493.31 5.73,494.27 6.69,494.86 8.05,495.05"/>
      </lanes>
   </edge>

   <edge id=":node7_8" function="internal">
      <lanes>
         <lane id=":node7_8_0" depart="0" maxspeed="40.00" length="16.10" shape="4.95,491.95 4.95,496.73 4.95,500.00 4.95,503.27 4.95,508.05"/>
      </lanes>
   </edge>

   <edge id=":node7_9" function="internal">
      <lanes>
         <lane id=":node7_9_0" depart="0" maxspeed="40.00" length="16.10" shape="1.65,491.95 1.65,496.73 1.65,500.00 1.65,503.27 1.65,508.05"/>
      </lanes>
   </edge>

   <edge id=":node7_10" function="internal">
      <lanes>